dynawo-simulation/src/test/resources/noMergedLoads.xiidm
<?xml version="1.0" encoding="UTF-8"?>
<iidm:network xmlns:iidm="http://www.powsybl.org/schema/iidm/1_18" id="test" caseDate="2023-02-16T16:05:53.078+01:00" forecastDistance="0" sourceFormat="test" minimumValidationLevel="STEADY_STATE_HYPOTHESIS">
    <iidm:substation id="substation">
        <iidm:voltageLevel id="vl1" nominalV="400.0" topologyKind="NODE_BREAKER">
            <iidm:nodeBreakerTopology>
                <iidm:busbarSection id="Busbar" node="0"/>
                <iidm:switch id="breaker1" kind="DISCONNECTOR" open="false" node1="0" node2="1"/>
                <iidm:switch id="breaker2" kind="DISCONNECTOR" open="false" node1="0" node2="2"/>
            </iidm:nodeBreakerTopology>
            <iidm:load id="load1" loadType="UNDEFINED" p0="10.0" q0="5.0" node="1"/>
            <iidm:load id="load2" loadType="UNDEFINED" p0="12.0" q0="1.0" node="2"/>
        </iidm:voltageLevel>
    </iidm:substation>
</iidm:network>
